examples/test_perturbation_outputs/pert_min_cost/pglib_opf_case240_pserc.m
%% MATPOWER Case Format : Version 2
function mpc = pglib_opf_case240_pserc
mpc.version = '2';

%%-----  Power Flow Data  -----%%
%% system MVA base
mpc.baseMVA = 100.0;
%% bus data
%    bus_i    type    Pd    Qd    Gs    Bs    area    Vm    Va    baseKV    zone    Vmax    Vmin
mpc.bus = [
	1001	1	0.0	0.0	0.0	0.0	10	1.0	0.0	500.0	1	1.1	0.9				
	1002	1	226.8419	-37.472	0.0	0.0	10	1.0	0.0	345.0	1	1.1	0.9				
	1003	1	2153.3224	366.856	0.0	0.0	10	1.0	0.0	230.0	1	1.1	0.9				
	1004	1	1037.9499	5.521	0.0	0.0	10	1.0	0.0	345.0	1	1.1	0.9				
	1032	2	0.0	0.0	0.0	0.0	10	1.0	0.0	20.0	1	1.1	0.9				
	1034	2	0.0	0.0	0.0	0.0	10	1.0	0.0	20.0	1	1.1	0.9				
	1101	1	4527.3661	-137.044	0.0	0.0	10	1.0	0.0	500.0	1	1.1	0.9				
	1102	1	176.4436	23.004	0.0	0.0	10	1.0	0.0	345.0	1	1.1	0.9				
	1131	2	0.0	0.0	0.0	0.0	10	1.0	0.0	20.0	1	1.1	0.9				
	1201	1	166.9882	-2.012	0.0	0.0	10	1.0	0.0	500.0	1	1.1	0.9				
	1202	1	875.61	287.131	0.0	0.0	10	1.0	0.0	500.0	1	1.1	0.9				
	1232	2	0.0	0.0	0.0	0.0	10	1.0	0.0	20.0	1	1.1	0.9				
	1301	1	2704.7793	352.826	0.0	0.0	10	1.0	0.0	500.0	1	1.1	0.9				
	1302	1	17.5556	2.304	0.0	0.0	10	1.0	0.0	500.0	1	1.1	0.9				
	1303	1	6235.136	813.349	0.0	0.0	10	1.0	0.0	345.0	1	1.1	0.9				
	1331	2	0.0	0.0	0.0	0.0	10	1.0	0.0	20.0	1	1.1	0.9				
	1333	2	0.0	0.0	0.0	0.0	10	1.0	0.0	20.0	1	1.1	0.9				
	1401	1	6535.5365	1524.594	0.0	0.0	10	1.0	0.0	500.0	1	1.1	0.9				
	1402	1	5366.6305	-600.162	0.0	0.0	10	1.0	0.0	500.0	1	1.1	0.9				
	1403	1	0.0	0.0	0.0	0.0	10	1.0	0.0	230.0	1	1.1	0.9				
	1431	2	0.0	0.0	0.0	0.0	10	1.0	0.0	20.0	1	1.1	0.9				
	2000	1	2207.188	287.916	0.0	0.0	20	1.0	0.0	230.0	1	1.1	0.9				
	2030	2	0.0	0.0	0.0	0.0	20	1.0	0.0	20.0	1	1.1	0.9				
	2100	1	281.1513	54.83	0.0	0.0	21	1.0	0.0	230.0	1	1.1	0.9				
	2130	2	0.0	0.0	0.0	0.0	21	1.0	0.0	20.0	1	1.1	0.9				
	2201	1	0.0	0.0	0.0	0.0	22	1.0	0.0	500.0	1	1.1	0.9				
	2202	1	1545.949	268.565	0.0	0.0	22	1.0	0.0	230.0	1	1.1	0.9				
	2203	1	1708.5525	278.273	0.0	0.0	22	1.0	0.0	230.0	1	1.1	0.9				
	2233	2	0.0	0.0	0.0	0.0	22	1.0	0.0	20.0	1	1.1	0.9				
	2301	1	0.0	0.0	0.0	0.0	22	1.0	0.0	500.0	1	1.1	0.9				
	2302	1	0.0	0.0	0.0	0.0	22	1.0	0.0	230.0	1	1.1	0.9				
	2332	2	0.0	0.0	0.0	0.0	22	1.0	0.0	20.0	1	1.1	0.9				
	2400	1	843.2926	76.663	0.0	0.0	24	1.0	0.0	500.0	1	1.1	0.9				
	2401	1	882.3636	105.21400000000001	0.0	0.0	24	1.0	0.0	500.0	1	1.1	0.9				
	2402	1	1080.0201	81.979	0.0	0.0	24	1.0	0.0	500.0	1	1.1	0.9				
	2403	1	1050.004	38.543	0.0	0.0	24	1.0	0.0	500.0	1	1.1	0.9				
	2404	1	0.0	0.0	0.0	0.0	24	1.0	0.0	500.0	1	1.1	0.9				
	2405	1	824.6826000000001	22.901	0.0	0.0	24	1.0	0.0	230.0	1	1.1	0.9				
	2406	1	737.4036	-40.751	0.0	0.0	24	1.0	0.0	230.0	1	1.1	0.9				
	2407	1	1732.771	-36.535	0.0	0.0	24	1.0	0.0	230.0	1	1.1	0.9				
	2408	1	1743.2767999999999	-72.623	0.0	0.0	24	1.0	0.0	230.0	1	1.1	0.9				
	2409	1	1601.7777000000003	-86.698	0.0	0.0	24	1.0	0.0	230.0	1	1.1	0.9				
	2410	1	1576.7872	58.184000000000005	0.0	0.0	24	1.0	0.0	230.0	1	1.1	0.9				
	2411	1	1087.6239	75.955	0.0	0.0	24	1.0	0.0	230.0	1	1.1	0.9				
	2438	2	0.0	0.0	0.0	0.0	24	1.0	0.0	20.0	1	1.1	0.9				
	2501	1	0.0	0.0	0.0	0.0	25	1.0	0.0	500.0	1	1.1	0.9				
	2502	1	2369.1531	-91.905	0.0	0.0	25	1.0	0.0	230.0	1	1.1	0.9				
	2503	1	1845.9256	201.99100000000004	0.0	0.0	25	1.0	0.0	230.0	1	1.1	0.9				
	2533	2	0.0	0.0	0.0	0.0	25	1.0	0.0	20.0	1	1.1	0.9				
	2600	1	-1863.9044	0.0	0.0	0.0	90	1.0	0.0	500.0	1	1.1	0.9				
	2601	1	0.0	0.0	0.0	0.0	26	1.0	0.0	500.0	1	1.1	0.9				
	2602	1	99.2784	12.955	0.0	0.0	26	1.0	0.0	500.0	1	1.1	0.9				
	2603	1	0.0	0.0	0.0	0.0	26	1.0	0.0	500.0	1	1.1	0.9				
	2604	1	2050.7816	0.0	0.0	0.0	90	1.0	0.0	345.0	1	1.1	0.9				
	2605	1	0.0	0.0	0.0	0.0	26	1.0	0.0	287.0	1	1.1	0.9				
	2606	1	0.0	0.0	0.0	0.0	26	1.0	0.0	287.0	1	1.1	0.9				
	2607	1	0.0	0.0	0.0	0.0	26	1.0	0.0	287.0	1	1.1	0.9				
	2608	1	99.2784	12.955	0.0	0.0	26	1.0	0.0	230.0	1	1.1	0.9				
	2609	1	134.0261	26.805	0.0	0.0	26	1.0	0.0	230.0	1	1.1	0.9				
	2610	1	99.2784	12.955	0.0	0.0	26	1.0	0.0	230.0	1	1.1	0.9				
	2611	1	99.2784	12.955	0.0	0.0	26	1.0	0.0	230.0	1	1.1	0.9				
	2612	1	120.12770000000002	24.819	0.0	0.0	26	1.0	0.0	230.0	1	1.1	0.9				
	2613	1	317.693	64.532	0.0	0.0	26	1.0	0.0	230.0	1	1.1	0.9				
	2614	1	137.0047	27.798000000000002	0.0	0.0	26	1.0	0.0	230.0	1	1.1	0.9				
	2615	1	801.9755999999999	131.148	0.0	0.0	26	1.0	0.0	230.0	1	1.1	0.9				
	2616	1	116.1565	23.827	0.0	0.0	26	1.0	0.0	230.0	1	1.1	0.9				
	2617	1	120.12770000000002	24.819	0.0	0.0	26	1.0	0.0	230.0	1	1.1	0.9				
	2618	1	881.2994	-6.155	0.0	0.0	26	1.0	0.0	230.0	1	1.1	0.9				
	2619	1	-2773.8339	0.0	0.0	0.0	90	1.0	0.0	230.0	1	1.1	0.9				
	2620	1	203.7206	17.473	0.0	0.0	26	1.0	0.0	230.0	1	1.1	0.9				
	2621	1	235.48969999999997	-62.745	0.0	0.0	26	1.0	0.0	138.0	1	1.1	0.9				
	2630	2	0.0	0.0	0.0	0.0	26	1.0	0.0	20.0	1	1.1	0.9				
	2631	2	0.0	0.0	0.0	0.0	26	1.0	0.0	20.0	1	1.1	0.9				
	2634	2	0.0	0.0	0.0	0.0	90	1.0	0.0	20.0	1	1.1	0.9				
	2637	2	0.0	0.0	0.0	0.0	26	1.0	0.0	20.0	1	1.1	0.9				
	2638	2	0.0	0.0	0.0	0.0	26	1.0	0.0	20.0	1	1.1	0.9				
	2901	1	0.0	0.0	0.0	0.0	24	1.0	0.0	500.0	1	1.1	0.9				
	2902	1	0.0	0.0	0.0	0.0	24	1.0	0.0	500.0	1	1.1	0.9				
	3101	1	341.3057	52.82800000000001	0.0	0.0	31	1.0	0.0	230.0	1	1.1	0.9				
	3102	1	159.4648	24.929	0.0	0.0	31	1.0	0.0	230.0	1	1.1	0.9				
	3103	1	419.6109	59.777	0.0	0.0	32	1.0	0.0	230.0	1	1.1	0.9				
	3104	1	309.9718	40.133	0.0	0.0	31	1.0	0.0	115.0	1	1.1	0.9				
	3105	1	239.30179999999996	49.091	0.0	0.0	31	1.0	0.0	115.0	1	1.1	0.9				
	3133	2	0.0	0.0	0.0	0.0	32	1.0	0.0	20.0	1	1.1	0.9				
	3135	2	0.0	0.0	0.0	0.0	31	1.0	0.0	20.0	1	1.1	0.9				
	3201	1	462.47689999999994	97.849	0.0	0.0	32	1.0	0.0	230.0	1	1.1	0.9				
	3202	1	586.1795	83.473	0.0	0.0	32	1.0	0.0	230.0	1	1.1	0.9				
	3203	1	657.1046	158.476	0.0	0.0	32	1.0	0.0	230.0	1	1.1	0.9				
	3204	1	668.7879	95.313	0.0	0.0	32	1.0	0.0	230.0	1	1.1	0.9				
	3205	1	546.0609	77.782	0.0	0.0	32	1.0	0.0	230.0	1	1.1	0.9				
	3234	2	0.0	0.0	0.0	0.0	32	1.0	0.0	20.0	1	1.1	0.9				
	3301	1	0.0	0.0	0.0	0.0	32	1.0	0.0	500.0	1	1.1	0.9				
	3302	1	345.3259	85.791	0.0	0.0	32	1.0	0.0	230.0	1	1.1	0.9				
	3303	1	625.4106	150.715	0.0	0.0	32	1.0	0.0	230.0	1	1.1	0.9				
	3304	1	533.4822	122.61599999999999	0.0	0.0	32	1.0	0.0	230.0	1	1.1	0.9				
	3305	1	430.3196	61.224999999999994	0.0	0.0	32	1.0	0.0	230.0	1	1.1	0.9				
	3333	2	0.0	0.0	0.0	0.0	32	1.0	0.0	20.0	1	1.1	0.9				
	3401	1	557.7071	135.909	0.0	0.0	34	1.0	0.0	230.0	1	1.1	0.9				
	3402	1	0.0	0.0	0.0	0.0	34	1.0	0.0	230.0	1	1.1	0.9				
	3403	1	515.9687	73.583	0.0	0.0	34	1.0	0.0	230.0	1	1.1	0.9				
	3404	1	438.461	62.075	0.0	0.0	34	1.0	0.0	230.0	1	1.1	0.9				
	3405	1	448.8976	63.723	0.0	0.0	34	1.0	0.0	230.0	1	1.1	0.9				
	3432	2	0.0	0.0	0.0	0.0	34	1.0	0.0	20.0	1	1.1	0.9				
	3433	2	0.0	0.0	0.0	0.0	34	1.0	0.0	20.0	1	1.1	0.9				
	3501	1	625.0164	89.015	0.0	0.0	35	1.0	0.0	230.0	1	1.1	0.9				
	3531	2	0.0	0.0	0.0	0.0	35	1.0	0.0	20.0	1	1.1	0.9				
	3601	1	104.85639999999998	14.844	0.0	0.0	36	1.0	0.0	115.0	1	1.1	0.9				
	3631	2	0.0	0.0	0.0	0.0	36	1.0	0.0	20.0	1	1.1	0.9				
	3701	1	317.0506	15.847	0.0	0.0	37	1.0	0.0	115.0	1	1.1	0.9				
	3731	2	0.0	0.0	0.0	0.0	37	1.0	0.0	20.0	1	1.1	0.9				
	3801	1	191.2229	47.411	0.0	0.0	38	1.0	0.0	500.0	1	1.1	0.9				
	3802	1	0.0	0.0	0.0	0.0	38	1.0	0.0	500.0	1	1.1	0.9				
	3803	1	0.0	0.0	0.0	0.0	38	1.0	0.0	500.0	1	1.1	0.9				
	3804	1	223.64039999999997	55.318	0.0	0.0	38	1.0	0.0	230.0	1	1.1	0.9				
	3805	1	499.3888	163.106	0.0	0.0	38	1.0	0.0	230.0	1	1.1	0.9				
	3806	1	289.5858	41.366	0.0	0.0	38	1.0	0.0	230.0	1	1.1	0.9				
	3831	2	0.0	0.0	0.0	0.0	38	1.0	0.0	20.0	1	1.1	0.9				
	3835	2	0.0	0.0	0.0	0.0	38	1.0	0.0	20.0	1	1.1	0.9				
	3836	2	0.0	0.0	0.0	0.0	38	1.0	0.0	20.0	1	1.1	0.9				
	3891	1	0.0	0.0	0.0	0.0	38	1.0	0.0	500.0	1	1.1	0.9				
	3892	1	0.0	0.0	0.0	0.0	38	1.0	0.0	500.0	1	1.1	0.9				
	3893	1	0.0	0.0	0.0	0.0	38	1.0	0.0	500.0	1	1.1	0.9				
	3894	1	0.0	0.0	0.0	0.0	38	1.0	0.0	500.0	1	1.1	0.9				
	3895	1	0.0	0.0	0.0	0.0	38	1.0	0.0	500.0	1	1.1	0.9				
	3896	1	0.0	0.0	0.0	0.0	38	1.0	0.0	500.0	1	1.1	0.9				
	3897	1	0.0	0.0	0.0	0.0	38	1.0	0.0	500.0	1	1.1	0.9				
	3901	1	0.0	0.0	0.0	0.0	39	1.0	0.0	500.0	1	1.1	0.9				
	3902	1	152.9913	38.248	0.0	0.0	39	1.0	0.0	500.0	1	1.1	0.9				
	3903	1	213.24780000000004	30.268999999999995	0.0	0.0	39	1.0	0.0	500.0	1	1.1	0.9				
	3904	1	0.0	0.0	0.0	0.0	39	1.0	0.0	500.0	1	1.1	0.9				
	3905	1	0.0	0.0	0.0	0.0	39	1.0	0.0	500.0	1	1.1	0.9				
	3906	1	0.0	0.0	0.0	0.0	39	1.0	0.0	500.0	1	1.1	0.9				
	3907	1	461.35729999999995	63.071	0.0	0.0	39	1.0	0.0	230.0	1	1.1	0.9				
	3908	1	200.2788	24.716	0.0	0.0	39	1.0	0.0	230.0	1	1.1	0.9				
	3909	1	170.957	39.785	0.0	0.0	39	1.0	0.0	230.0	1	1.1	0.9				
	3910	1	241.83919999999998	34.44	0.0	0.0	39	1.0	0.0	230.0	1	1.1	0.9				
	3911	1	233.13450000000003	47.114	0.0	0.0	39	1.0	0.0	230.0	1	1.1	0.9				
	3912	1	174.5029	-0.634	0.0	0.0	39	1.0	0.0	230.0	1	1.1	0.9				
	3913	1	329.5484	43.435	0.0	0.0	39	1.0	0.0	230.0	1	1.1	0.9				
	3914	1	227.7536	52.549	0.0	0.0	39	1.0	0.0	230.0	1	1.1	0.9				
	3915	1	254.45890000000003	53.40200000000001	0.0	0.0	39	1.0	0.0	230.0	1	1.1	0.9				
	3916	1	155.0024	0.0	0.0	0.0	39	1.0	0.0	230.0	1	1.1	0.9				
	3917	1	238.1882	43.995	0.0	0.0	39	1.0	0.0	230.0	1	1.1	0.9				
	3918	1	319.2809	75.464	0.0	0.0	39	1.0	0.0	230.0	1	1.1	0.9				
	3919	1	184.5093	24.094	0.0	0.0	39	1.0	0.0	230.0	1	1.1	0.9				
	3920	1	172.5018	23.677	0.0	0.0	39	1.0	0.0	230.0	1	1.1	0.9				
	3921	1	150.8902	34.821	0.0	0.0	39	1.0	0.0	230.0	1	1.1	0.9				
	3922	1	253.4454	31.919000000000004	0.0	0.0	39	1.0	0.0	230.0	1	1.1	0.9				
	3923	1	399.0618	67.021	0.0	0.0	39	1.0	0.0	230.0	1	1.1	0.9				
	3924	1	332.4879	47.165	0.0	0.0	39	1.0	0.0	230.0	1	1.1	0.9				
	3925	1	0.0	0.0	0.0	0.0	39	1.0	0.0	115.0	1	1.1	0.9				
	3926	1	267.3529	16.668	0.0	0.0	39	1.0	0.0	115.0	1	1.1	0.9				
	3931	2	0.0	0.0	0.0	0.0	39	1.0	0.0	20.0	1	1.1	0.9				
	3932	2	0.0	0.0	0.0	0.0	39	1.0	0.0	20.0	1	1.1	0.9				
	3933	3	0.0	0.0	0.0	0.0	39	1.0	0.0	20.0	1	1.1	0.9				
	4001	1	0.0	0.0	0.0	0.0	40	1.0	0.0	500.0	1	1.1	0.9				
	4002	1	168.6841	21.998	0.0	0.0	40	1.0	0.0	500.0	1	1.1	0.9				
	4003	1	0.0	0.0	0.0	0.0	40	1.0	0.0	500.0	1	1.1	0.9				
	4004	1	270.4505	35.297	0.0	0.0	40	1.0	0.0	500.0	1	1.1	0.9				
	4005	1	480.1144	157.418	0.0	0.0	40	1.0	0.0	500.0	1	1.1	0.9				
	4006	1	0.0	0.0	0.0	0.0	40	1.0	0.0	500.0	1	1.1	0.9				
	4007	1	0.0	0.0	0.0	0.0	40	1.0	0.0	500.0	1	1.1	0.9				
	4008	1	285.1446	37.198	0.0	0.0	40	1.0	0.0	345.0	1	1.1	0.9				
	4009	1	2208.7429	431.39500000000004	0.0	0.0	40	1.0	0.0	230.0	1	1.1	0.9				
	4010	1	3133.6101	0.0	0.0	0.0	90	1.0	0.0	230.0	1	1.1	0.9				
	4031	2	0.0	0.0	0.0	0.0	40	1.0	0.0	20.0	1	1.1	0.9				
	4035	2	0.0	0.0	0.0	0.0	40	1.0	0.0	20.0	1	1.1	0.9				
	4039	2	0.0	0.0	0.0	0.0	40	1.0	0.0	20.0	1	1.1	0.9				
	4090	1	0.0	0.0	0.0	0.0	40	1.0	0.0	500.0	1	1.1	0.9				
	4091	1	0.0	0.0	0.0	0.0	40	1.0	0.0	500.0	1	1.1	0.9				
	4092	1	0.0	0.0	0.0	0.0	40	1.0	0.0	500.0	1	1.1	0.9				
	4093	1	0.0	0.0	0.0	0.0	40	1.0	0.0	500.0	1	1.1	0.9				
	4094	1	0.0	0.0	0.0	0.0	40	1.0	0.0	500.0	1	1.1	0.9				
	4095	1	0.0	0.0	0.0	0.0	40	1.0	0.0	500.0	1	1.1	0.9				
	4096	1	0.0	0.0	0.0	0.0	40	1.0	0.0	500.0	1	1.1	0.9				
	4097	1	0.0	0.0	0.0	0.0	40	1.0	0.0	500.0	1	1.1	0.9				
	4101	1	995.0274999999999	129.784	0.0	0.0	40	1.0	0.0	500.0	1	1.1	0.9				
	4102	1	480.649	68.664	0.0	0.0	40	1.0	0.0	500.0	1	1.1	0.9				
	4103	1	11.6269	1.509	0.0	0.0	40	1.0	0.0	500.0	1	1.1	0.9				
	4104	1	2527.7724	329.74	0.0	0.0	40	1.0	0.0	230.0	1	1.1	0.9				
	4131	2	0.0	0.0	0.0	0.0	40	1.0	0.0	20.0	1	1.1	0.9				
	4132	2	0.0	0.0	0.0	0.0	40	1.0	0.0	20.0	1	1.1	0.9				
	4201	1	5762.6589	461.013	0.0	0.0	40	1.0	0.0	500.0	1	1.1	0.9				
	4202	1	4558.2389	594.626	0.0	0.0	40	1.0	0.0	500.0	1	1.1	0.9				
	4203	1	4379.6262	571.331	0.0	0.0	40	1.0	0.0	500.0	1	1.1	0.9				
	4204	1	1014.5202000000002	132.34	0.0	0.0	40	1.0	0.0	500.0	1	1.1	0.9				
	4231	2	0.0	0.0	0.0	0.0	40	1.0	0.0	20.0	1	1.1	0.9				
	4232	2	0.0	0.0	0.0	0.0	40	1.0	0.0	20.0	1	1.1	0.9				
	5001	1	7574.0522	1721.375	0.0	0.0	50	1.0	0.0	500.0	1	1.1	0.9				
	5002	1	9003.9839	1174.359	0.0	0.0	50	1.0	0.0	500.0	1	1.1	0.9				
	5003	1	615.2178	80.253	0.0	0.0	50	1.0	0.0	230.0	1	1.1	0.9				
	5004	1	0.0	0.0	0.0	0.0	50	1.0	0.0	230.0	1	1.1	0.9				
	5031	2	0.0	0.0	0.0	0.0	50	1.0	0.0	20.0	1	1.1	0.9				
	5032	2	0.0	0.0	0.0	0.0	50	1.0	0.0	20.0	1	1.1	0.9				
	6101	1	0.0	0.0	0.0	0.0	61	1.0	0.0	500.0	1	1.1	0.9				
	6102	1	1053.1441	-345.277	0.0	0.0	61	1.0	0.0	345.0	1	1.1	0.9				
	6103	1	391.888	51.111	0.0	0.0	61	1.0	0.0	345.0	1	1.1	0.9				
	6104	1	1694.958	221.085	0.0	0.0	61	1.0	0.0	230.0	1	1.1	0.9				
	6132	2	0.0	0.0	0.0	0.0	61	1.0	0.0	20.0	1	1.1	0.9				
	6201	1	205.82	26.857	0.0	0.0	60	1.0	0.0	500.0	1	1.1	0.9				
...
];

%% generator data
%    bus    Pg    Qg    Qmax    Qmin    Vg    mBase    status    Pmax    Pmin    Pc1    Pc2    Qc1min    Qc1max    Qc2min    Qc2max    ramp_agc    ramp_10    ramp_30    ramp_q    apf
mpc.gen = [
	1032	1030.0	0.0	1030.0	-1030.0	1.0	100.0	1	2060.0	0.0															
	1032	357.0	0.0	357.0	-357.0	1.0	100.0	1	714.0	0.0															
	1034	2293.5	0.0	2294.0	-2294.0	1.0	100.0	1	4587.0	0.0															
	1034	917.5000000000001	0.0	918.0	-918.0	1.0	100.0	1	1835.0000000000002	0.0															
	1034	700.0	0.0	700.0	-700.0	1.0	100.0	1	1400.0	0.0															
	1131	307.5	0.0	308.0	-308.0	1.0	100.0	1	615.0	0.0															
	1131	1915.4	0.0	1916.0	-1916.0	1.0	100.0	1	3830.8	0.0															
	1131	120.0	0.0	120.0	-120.0	1.0	100.0	1	240.0	0.0															
	1232	1207.5	0.0	1208.0	-1208.0	1.0	100.0	1	2415.0	0.0															
	1232	628.0	0.0	628.0	-628.0	1.0	100.0	1	1256.0	0.0															
	1331	841.0	0.0	841.0	-841.0	1.0	100.0	1	1682.0	0.0															
	1331	1219.0	0.0	1219.0	-1219.0	1.0	100.0	1	2438.0	0.0															
	1333	302.5	0.0	303.0	-303.0	1.0	100.0	1	605.0	0.0															
	1333	2745.5	0.0	2746.0	-2746.0	1.0	100.0	1	5491.0	0.0															
	1333	37.5	0.0	38.0	-38.0	1.0	100.0	1	75.0	0.0															
	1431	3559.35	0.0	3559.0000000000005	-3559.0000000000005	1.0	100.0	1	7118.7	0.0															
	1431	2056.5	0.0	2057.0	-2057.0	1.0	100.0	1	4113.0	0.0															
	1431	15.0	0.0	15.0	-15.0	1.0	100.0	1	30.0	0.0															
	2030	1070.0	0.0	1070.0	-1070.0	1.0	100.0	1	2140.0	0.0															
	2030	349.5	0.0	350.0	-350.0	1.0	100.0	1	699.0	0.0															
	2130	200.0	0.0	200.0	-200.0	1.0	100.0	1	400.0	0.0															
	2130	253.5	0.0	254.0	-254.0	1.0	100.0	1	507.0	0.0															
	2130	250.0	0.0	250.0	-250.0	1.0	100.0	1	500.0	0.0															
	2130	86.0	0.0	86.0	-86.0	1.0	100.0	1	172.0	0.0															
	2233	353.0	93.0	304.0	-118.0	1.0	100.0	1	706.0	0.0															
	2233	626.5	215.0	611.0	-181.0	1.0	100.0	1	1253.0	0.0															
	2233	250.0	25.5	206.0	-155.0	1.0	100.0	1	500.0	0.0															
	2332	559.0	112.99999999999999	590.0	-364.0	1.0	100.0	1	1118.0	0.0															
	2438	781.5	137.0	728.0	-454.0	1.0	100.0	1	1563.0	0.0															
	2438	1859.0	367.0	1902.0	-1168.0	1.0	100.0	1	3718.0	0.0															
	2438	1401.5	624.0	2301.0	-1053.0	1.0	100.0	1	2803.0	0.0															
	2438	670.0	68.0	659.0	-523.0	1.0	100.0	1	1340.0	0.0															
	2438	473.00000000000006	119.5	436.00000000000006	-197.0	1.0	100.0	1	946.0000000000001	0.0															
	2438	636.5	4.0	561.0	-553.0	1.0	100.0	1	1273.0	0.0															
	2438	1983.5	380.0	1910.0000000000002	-1150.0	1.0	100.0	1	3967.0	0.0															
	2438	-503.0	0.25	0.5	0.0	1.0	100.0	1	0.0	-1006.0															
	2533	1116.0	140.0	1100.0	-819.9999999999999	1.0	100.0	1	2232.0	0.0															
	2630	1346.0	0.0	1346.0	-1346.0	1.0	100.0	1	2692.0	0.0															
	2631	159.0	0.0	159.0	-159.0	1.0	100.0	1	318.0	0.0															
	2634	950.0	0.0	950.0	-950.0	1.0	100.0	1	1900.0	0.0															
	2637	55.00000000000001	0.0	110.00000000000001	-110.00000000000001	1.0	100.0	1	110.00000000000001	0.0															
	2638	0.0	0.0	100.0	-100.0	1.0	100.0	1	1272.0	-1272.0															
	3133	21.0	6.5	42.0	-28.999999999999996	1.0	100.0	1	42.0	0.0															
	3133	0.05	0.0	500.0	-500.0	1.0	100.0	1	0.1	0.0															
	3135	184.5	19.0	239.0	-200.99999999999997	1.0	100.0	1	369.0	0.0															
	3135	13.0	7.5	100.0	-85.0	1.0	100.0	1	26.0	0.0															
	3234	60.5	13.0	101.0	-75.0	1.0	100.0	1	121.0	0.0															
	3234	1314.0	5.0	1244.0	-1234.0	1.0	100.0	1	2628.0	0.0															
	3234	353.5	85.0	382.0	-212.0	1.0	100.0	1	707.0	0.0															
	3234	345.0	10.0	75.0	-55.00000000000001	1.0	100.0	1	690.0	0.0															
	3333	345.0	86.0	398.0	-225.99999999999997	1.0	100.0	1	690.0	0.0															
	3333	106.5	29.5	202.0	-143.0	1.0	100.0	1	213.0	0.0															
	3432	147.0	102.0	509.99999999999994	-306.0	1.0	100.0	1	1218.0	-924.0															
	3433	314.0	28.000000000000004	231.0	-175.0	1.0	100.0	1	628.0	0.0															
	3433	1008.0	188.5	939.0	-562.0	1.0	100.0	1	2016.0	0.0															
	3531	434.0	202.5	1003.9999999999999	-599.0	1.0	100.0	1	868.0	0.0															
	3531	162.5	36.0	252.99999999999997	-181.0	1.0	100.0	1	325.0	0.0															
	3531	15.0	1.5	13.0	-10.0	1.0	100.0	1	30.0	0.0															
	3631	26.5	3.0	20.0	-14.000000000000002	1.0	100.0	1	53.0	0.0															
	3631	71.5	20.0	74.0	-34.0	1.0	100.0	1	143.0	0.0															
	3731	127.49999999999999	39.5	200.0	-121.0	1.0	100.0	1	254.99999999999997	0.0															
	3831	1133.5	97.5	1175.0	-980.0000000000001	1.0	100.0	1	2267.0	0.0															
	3835	690.5	91.5	662.0	-479.0	1.0	100.0	1	1381.0	0.0															
	3835	-254.99999999999997	0.25	0.5	0.0	1.0	100.0	1	0.0	-509.99999999999994															
	3836	510.50000000000006	62.0	476.0	-352.0	1.0	100.0	1	1021.0000000000001	0.0															
	3931	157.0	18.0	151.0	-114.99999999999999	1.0	100.0	1	314.0	0.0															
	3931	1848.0	169.0	1284.0	-946.0000000000001	1.0	100.0	1	3696.0	0.0															
	3932	739.0	325.0	1150.0	-500.0	1.0	100.0	1	1478.0	0.0															
	3933	295.0	140.5	363.0	-82.0	1.0	100.0	1	590.0	0.0															
	3933	95.5	11.0	77.0	-55.00000000000001	1.0	100.0	1	191.0	0.0															
	3933	657.0	96.5	500.0	-307.0	1.0	100.0	1	1314.0	0.0															
	3933	1752.4999999999998	107.5	1256.0	-1041.0	1.0	100.0	1	3504.9999999999995	0.0															
	3933	146.5	1.0	13.0	-11.0	1.0	100.0	1	293.0	0.0															
	3933	-224.5	0.25	0.5	0.0	1.0	100.0	1	0.0	-449.0															
	4039	102.0	0.0	102.0	-102.0	1.0	100.0	1	204.0	0.0															
	4039	1459.0	0.0	1459.0	-1459.0	1.0	100.0	1	2918.0	0.0															
	4039	187.5	0.0	188.0	-188.0	1.0	100.0	1	375.0	0.0															
	4031	501.49999999999994	0.0	501.99999999999994	-501.99999999999994	1.0	100.0	1	1002.9999999999999	0.0															
	4031	488.99999999999994	0.0	488.99999999999994	-488.99999999999994	1.0	100.0	1	977.9999999999999	0.0															
	4031	37.5	0.0	38.0	-38.0	1.0	100.0	1	75.0	0.0															
	4031	120.0	0.0	120.0	-120.0	1.0	100.0	1	240.0	0.0															
	4035	254.99999999999997	0.0	254.99999999999997	-254.99999999999997	1.0	100.0	1	509.99999999999994	0.0															
	4035	306.5	0.0	307.0	-307.0	1.0	100.0	1	613.0	0.0															
	4035	1835.5	0.0	1836.0	-1836.0	1.0	100.0	1	3671.0	0.0															
	4035	488.0	0.0	488.0	-488.0	1.0	100.0	1	976.0	0.0															
	4131	6481.5	0.0	6481.999999999999	-6481.999999999999	1.0	100.0	1	12963.0	0.0															
	4131	120.0	0.0	120.0	-120.0	1.0	100.0	1	240.0	0.0															
	4132	1472.5	0.0	1473.0	-1473.0	1.0	100.0	1	2945.0	0.0															
	4132	2846.5	0.0	2847.0	-2847.0	1.0	100.0	1	5693.0	0.0															
	4132	580.0	0.0	580.0	-580.0	1.0	100.0	1	1160.0	0.0															
	4132	230.50000000000003	0.0	231.0	-231.0	1.0	100.0	1	461.00000000000006	0.0															
	4132	87.5	0.0	88.0	-88.0	1.0	100.0	1	175.0	0.0															
	4231	728.0	0.0	728.0	-728.0	1.0	100.0	1	1456.0	0.0															
	4231	658.5	0.0	659.0	-659.0	1.0	100.0	1	1317.0	0.0															
	4231	1807.5	0.0	1807.9999999999998	-1807.9999999999998	1.0	100.0	1	3615.0	0.0															
	4231	23.5	0.0	24.0	-24.0	1.0	100.0	1	47.0	0.0															
	4232	592.0	0.0	592.0	-592.0	1.0	100.0	1	1184.0	0.0															
	4232	286.5	0.0	287.0	-287.0	1.0	100.0	1	573.0	0.0															
	4232	107.5	0.0	108.0	-108.0	1.0	100.0	1	215.0	0.0															
	5031	605.0	0.0	605.0	-605.0	1.0	100.0	1	1210.0	0.0															
	5031	4399.4	0.0	4399.0	-4399.0	1.0	100.0	1	8798.8	0.0															
	5032	2977.0	0.0	2977.0	-2977.0	1.0	100.0	1	5954.0	0.0															
	5032	2200.0	0.0	2200.0	-2200.0	1.0	100.0	1	4400.0	0.0															
	5032	2205.1	0.0	2205.0	-2205.0	1.0	100.0	1	4410.2	0.0															
	5032	54.0	0.0	54.0	-54.0	1.0	100.0	1	108.0	0.0															
	5032	270.5	0.0	271.0	-271.0	1.0	100.0	1	541.0	0.0															
	6132	7.5	0.0	8.0	-8.0	1.0	100.0	1	15.0	0.0															
	6132	146.5	0.0	147.0	-147.0	1.0	100.0	1	293.0	0.0															
	6132	1072.0	0.0	1072.0	-1072.0	1.0	100.0	1	2144.0	0.0															
	6132	17.5	0.0	18.0	-18.0	1.0	100.0	1	35.0	0.0															
	6132	118.0	0.0	118.0	-118.0	1.0	100.0	1	236.0	0.0															
	6231	1255.5	0.0	1256.0	-1256.0	1.0	100.0	1	2511.0	0.0															
	6231	70.0	0.0	70.0	-70.0	1.0	100.0	1	140.0	0.0															
	6235	63.5	0.0	64.0	-64.0	1.0	100.0	1	127.0	0.0															
	6235	346.5	0.0	347.0	-347.0	1.0	100.0	1	693.0	0.0															
	6235	95.0	0.0	95.0	-95.0	1.0	100.0	1	190.0	0.0															
	6333	1671.0	0.0	1671.0	-1671.0	1.0	100.0	1	3342.0	0.0															
	6333	124.0	0.0	124.0	-124.0	1.0	100.0	1	248.0	0.0															
	6335	967.5000000000001	0.0	968.0	-968.0	1.0	100.0	1	1935.0000000000002	0.0															
	6335	329.5	0.0	330.0	-330.0	1.0	100.0	1	659.0	0.0															
	6335	405.99999999999994	0.0	405.99999999999994	-405.99999999999994	1.0	100.0	1	811.9999999999999	0.0															
	6433	282.5	0.0	283.0	-283.0	1.0	100.0	1	565.0	0.0															
	6433	59.0	0.0	59.0	-59.0	1.0	100.0	1	118.0	0.0															
	6433	536.0	0.0	536.0	-536.0	1.0	100.0	1	1072.0	0.0															
	6433	11.5	0.0	12.0	-12.0	1.0	100.0	1	23.0	0.0															
	6433	25.0	0.0	25.0	-25.0	1.0	100.0	1	50.0	0.0															
	6533	1923.5	0.0	1923.9999999999998	-1923.9999999999998	1.0	100.0	1	3847.0	0.0															
	6533	18.5	0.0	19.0	-19.0	1.0	100.0	1	37.0	0.0															
	6533	880.0000000000001	0.0	880.0000000000001	-880.0000000000001	1.0	100.0	1	1760.0000000000002	0.0															
	6533	19.5	0.0	20.0	-20.0	1.0	100.0	1	39.0	0.0															
	6533	30.5	0.0	31.0	-31.0	1.0	100.0	1	61.0	0.0															
	7031	1418.5	0.0	1419.0	-1419.0	1.0	100.0	1	2837.0	0.0															
	7031	2092.0	0.0	2092.0	-2092.0	1.0	100.0	1	4184.0	0.0															
	7031	0.0	0.0	167.0	-167.0	1.0	100.0	1	333.0	-333.0															
	7031	298.5	0.0	299.0	-299.0	1.0	100.0	1	597.0	0.0															
	7031	0.05	0.0	1000.0	-1000.0	1.0	100.0	1	0.1	0.0															
	7032	826.0	0.0	826.0	-826.0	1.0	100.0	1	1652.0	0.0															
	7032	488.99999999999994	0.0	488.99999999999994	-488.99999999999994	1.0	100.0	1	977.9999999999999	0.0															
	7032	345.5	0.0	346.0	-346.0	1.0	100.0	1	691.0	0.0															
	7032	0.0	0.0	23.0	-23.0	1.0	100.0	1	200.0	-200.0															
	8033	786.0	0.0	786.0	-786.0	1.0	100.0	1	1572.0	0.0															
	8034	1280.0	0.0	1280.0	-1280.0	1.0	100.0	1	2560.0	0.0															
	8034	344.0	0.0	344.0	-344.0	1.0	100.0	1	688.0	0.0															
];

%% branch data
%    f_bus    t_bus    r    x    b    rateA    rateB    rateC    ratio    angle    status    angmin    angmax
mpc.branch = [
	1001	1201	0.0017601903739824913	0.0315143679563185	3.395940067800294	996.0000000000001	996.0000000000001	996.0000000000001	0	0	1	-29.999999999999996	29.999999999999996								
	1001	1202	0.010617897956814159	0.09487287761826814	0.3806480747248185	326.0	326.0	326.0	0	0	1	-29.999999999999996	29.999999999999996								
	1002	1004	0.0005015196002000793	0.005316107760793865	0.04522077804523085	5934.0	5934.0	5934.0	0	0	1	-29.999999999999996	29.999999999999996								
	1002	1102	0.0017996308455163748	0.01998696148484247	2.5154393158778126	1583.0	1583.0	1583.0	0	0	1	-29.999999999999996	29.999999999999996								
	1002	1102	0.0017877469330267732	0.019854977028280305	2.584777879730338	1583.0	1583.0	1583.0	0	0	1	-29.999999999999996	29.999999999999996								
	1002	6506	0.004847570014195843	0.044032093658384154	0.731497299544367	721.0	721.0	721.0	0	0	1	-29.999999999999996	29.999999999999996								
	1004	7001	0.011894314099153923	0.15426835090792895	1.9957949556831471	114.99999999999999	114.99999999999999	114.99999999999999	0	0	1	-29.999999999999996	29.999999999999996								
	1004	7002	0.009268677488418304	0.10435561651313367	2.009256623386196	287.0	287.0	287.0	0	0	1	-29.999999999999996	29.999999999999996								
	1101	1401	0.002803382857787075	0.02112549220261391	1.0174006075131357	1485.0	1485.0	1485.0	0	0	1	-29.999999999999996	29.999999999999996								
	1101	1401	0.0028089892599476992	0.021167740447181282	1.0515866445901882	1485.0	1485.0	1485.0	0	0	1	-29.999999999999996	29.999999999999996								
	1201	1202	0.0007691891268207626	0.005354355479594622	1.5282024231155347	5834.0	5834.0	5834.0	0	0	1	-29.999999999999996	29.999999999999996								
	1201	1402	0.0017909651215592705	0.025933975097537646	3.5402223307206677	1216.0	1216.0	1216.0	0	0	1	-29.999999999999996	29.999999999999996								
	1201	2901	0.0020612642537252263	0.013632225899318052	4.165565244642846	2282.0	2282.0	2282.0	0	0	1	-29.999999999999996	29.999999999999996								
	1202	1302	0.0027451475441795446	0.02068664753681662	1.3729954511187208	1485.0	1485.0	1485.0	0	0	1	-29.999999999999996	29.999999999999996								
	1202	1402	0.002445191344184371	0.03539947061868011	4.699900049027747	903.9999999999999	903.9999999999999	903.9999999999999	0	0	1	-29.999999999999996	29.999999999999996								
	1301	1302	0.00283799398884906	0.02138631180502542	1.0553068589786487	1485.0	1485.0	1485.0	0	0	1	-29.999999999999996	29.999999999999996								
	1301	1402	0.00279693765085156	0.02107692297033226	0.9033554704106633	1485.0	1485.0	1485.0	0	0	1	-29.999999999999996	29.999999999999996								
	1301	1402	0.006260626356537505	0.06795808573995737	1.2056294699698242	468.0	468.0	468.0	0	0	1	-29.999999999999996	29.999999999999996								
	1301	2603	0.0017684442154537764	0.024936051113142545	0.5807564798121913	1249.0	1249.0	1249.0	0	0	1	-29.999999999999996	29.999999999999996								
	1301	2901	0.011078096763401733	0.09898483793408266	0.3359894835310444	326.0	326.0	326.0	0	0	1	-29.999999999999996	29.999999999999996								
	1303	6507	0.008211695257854304	0.13861654941559665	1.1460918909269915	231.0	231.0	231.0	0	0	1	-29.999999999999996	29.999999999999996								
	1401	1402	0.00039898316937669577	0.00957559602529213	0.8765662421587004	3288.0000000000005	3288.0000000000005	3288.0000000000005	0	0	1	-29.999999999999996	29.999999999999996								
	1401	1402	0.00039812692632213966	0.009555046192251957	0.8626174447849733	3288.0000000000005	3288.0000000000005	3288.0000000000005	0	0	1	-29.999999999999996	29.999999999999996								
	1401	2301	0.00255812760111767	0.029304882298810998	2.1545015822036344	1061.0	1061.0	1061.0	0	0	1	-29.999999999999996	29.999999999999996								
	1401	2400	0.002573651034983714	0.02948271260265474	2.2615668261305175	1061.0	1061.0	1061.0	0	0	1	-29.999999999999996	29.999999999999996								
	1403	2100	0.008464199299056977	0.07045819639243116	0.18698956323162358	446.0	446.0	446.0	0	0	1	-29.999999999999996	29.999999999999996								
	2000	2202	0.0011476757087529573	0.04490071522682758	0.16557923468884744	585.0	585.0	585.0	0	0	1	-29.999999999999996	29.999999999999996								
	2000	2302	0.0015833731829083693	0.061946547364301205	0.14384292805082333	585.0	585.0	585.0	0	0	1	-29.999999999999996	29.999999999999996								
	2100	2302	0.00863007088413527	0.07183895445498421	0.20669061426364976	446.0	446.0	446.0	0	0	1	-29.999999999999996	29.999999999999996								
	2201	2301	0.0017772153754411588	0.02505972944254969	2.096514313447208	1249.0	1249.0	1249.0	0	0	1	-29.999999999999996	29.999999999999996								
	2202	2203	0.0031052422634191223	0.02872349075864133	0.04464412649098247	1089.0	1089.0	1089.0	0	0	1	-29.999999999999996	29.999999999999996								
	2202	2203	0.003112166750790112	0.028787542265602633	0.12981195329228992	1089.0	1089.0	1089.0	0	0	1	-29.999999999999996	29.999999999999996								
	2202	2503	0.0031226057749887317	0.028884103232983765	0.009392605475199904	1089.0	1089.0	1089.0	0	0	1	-29.999999999999996	29.999999999999996								
	2203	2503	0.0030435019460575943	0.02815239283174758	0.009411997771156129	1089.0	1089.0	1089.0	0	0	1	-29.999999999999996	29.999999999999996								
	2203	2503	0.003128478549567232	0.028938426399330797	0.1361984742032935	1089.0	1089.0	1089.0	0	0	1	-29.999999999999996	29.999999999999996								
	2400	2403	0.0004157606941924621	0.008958653025621101	0.6698246076739971	3486.9999999999995	3486.9999999999995	3486.9999999999995	0	0	1	-29.999999999999996	29.999999999999996								
	2401	2402	0.0002819853080055173	0.007583390579297765	0.5708187735478101	4192.0	4192.0	4192.0	0	0	1	-29.999999999999996	29.999999999999996								
	2401	2402	0.0003500689118316306	0.007501476667096265	0.556246142129162	4208.0	4208.0	4208.0	0	0	1	-29.999999999999996	29.999999999999996								
	2401	2404	0.0004410823039464905	0.011277672462532458	0.830482824762197	2806.0	2806.0	2806.0	0	0	1	-29.999999999999996	29.999999999999996								
	2401	2404	0.0004337283563292971	0.011089645396896585	0.8278133684477111	2806.0	2806.0	2806.0	0	0	1	-29.999999999999996	29.999999999999996								
	2401	2501	0.0005964464363427541	0.012724190567200611	0.9387737741701433	2466.0	2466.0	2466.0	0	0	1	-29.999999999999996	29.999999999999996								
	2401	2603	0.00019926658032312416	0.0040849648942900595	0.2776242354688932	7695.999999999999	7695.999999999999	7695.999999999999	0	0	1	-29.999999999999996	29.999999999999996								
	2401	2901	0.0019321914087471561	0.02782155364532539	4.691814419329891	1134.0	1134.0	1134.0	0	0	1	-29.999999999999996	29.999999999999996								
	2401	2902	0.0019273884761682976	0.031446863886626625	3.930323196136174	1018.0	1018.0	1018.0	0	0	1	-29.999999999999996	29.999999999999996								
	2402	2501	0.00021039922274680196	0.004578687843638343	0.36925265660119894	6905.0	6905.0	6905.0	0	0	1	-29.999999999999996	29.999999999999996								
	2403	2501	0.00039822808707320204	0.009258802986750974	0.6584010689045071	3394.0	3394.0	3394.0	0	0	1	-29.999999999999996	29.999999999999996								
	2404	3893	0.0049114886958875415	0.15502981928992593	0.009402814948588098	3379.0	3379.0	3379.0	0	0	1	-29.999999999999996	29.999999999999996								
	2404	3895	0.004911488695882641	0.15502981928992624	0.009450825426452055	3379.0	3379.0	3379.0	0	0	1	-29.999999999999996	29.999999999999996								
	2404	3897	0.004911488695891154	0.15502981928992568	0.009394115396194582	3761.0	3761.0	3761.0	0	0	1	-29.999999999999996	29.999999999999996								
	2405	2406	0.001401730676446764	0.026432635002743253	0.009406328972971417	1195.0	1195.0	1195.0	0	0	1	-29.999999999999996	29.999999999999996								
	2405	2410	0.0006394290942805037	0.011676958951883693	0.0949759235745726	2658.0	2658.0	2658.0	0	0	1	-29.999999999999996	29.999999999999996								
	2405	2410	0.0006450617689995938	0.011779820256644697	0.02462184468639696	2658.0	2658.0	2658.0	0	0	1	-29.999999999999996	29.999999999999996								
	2406	2408	0.001875566138173997	0.025468213616053337	0.2499637642999436	1222.0	1222.0	1222.0	0	0	1	-29.999999999999996	29.999999999999996								
	2406	2410	0.008285445337280062	0.06897020197602313	0.20762770670907268	446.0	446.0	446.0	0	0	1	-29.999999999999996	29.999999999999996								
	2407	2408	0.0010949914022204898	0.01264217344654013	0.2679386447896526	2478.0	2478.0	2478.0	0	0	1	-29.999999999999996	29.999999999999996								
	2408	2409	0.0013735332769213347	0.05373696648862766	0.1361124007154793	585.0	585.0	585.0	0	0	1	-29.999999999999996	29.999999999999996								
	2408	2409	0.0014038257855243119	0.05492210303483165	0.17022834092571226	585.0	585.0	585.0	0	0	1	-29.999999999999996	29.999999999999996								
	2408	2411	0.0033384883467904793	0.041209464412677324	0.19717269643219565	798.0	798.0	798.0	0	0	1	-29.999999999999996	29.999999999999996								
	2408	2502	0.0031102254291584665	0.028769585063937696	0.09895804126047927	1089.0	1089.0	1089.0	0	0	1	-29.999999999999996	29.999999999999996								
	2409	2502	0.0030424337830468853	0.02814251232494099	0.14245903760872006	1089.0	1089.0	1089.0	0	0	1	-29.999999999999996	29.999999999999996								
	2409	2503	0.003099973624240761	0.028674755841928364	0.29045825108118895	1089.0	1089.0	1089.0	0	0	1	-29.999999999999996	29.999999999999996								
	2410	2411	0.0028894598606904014	0.03699522389351845	0.10332110018953654	864.0	864.0	864.0	0	0	1	-29.999999999999996	29.999999999999996								
	2410	2411	0.0014091510526708512	0.034708000518417575	0.2123583559376946	928.9999999999999	928.9999999999999	928.9999999999999	0	0	1	-29.999999999999996	29.999999999999996								
	2502	2503	0.0031270940326416402	0.02892561961653889	0.027867291686497486	1089.0	1089.0	1089.0	0	0	1	-29.999999999999996	29.999999999999996								
	2502	2503	0.003096888484205952	0.028646218298921885	0.3695925782938708	1089.0	1089.0	1089.0	0	0	1	-29.999999999999996	29.999999999999996								
	2901	2902	0.0005644463632379002	0.014262349902469969	1.256136415930993	2231.0	2231.0	2231.0	0	0	1	-29.999999999999996	29.999999999999996								
	2600	2602	0.0008658442321725921	0.017612538571030744	1.235516918493833	1892.0000000000002	1892.0000000000002	1892.0000000000002	0	0	1	-29.999999999999996	29.999999999999996								
	2600	2603	5.160876022370434e-7	0.0015899673053758631	0.11026703181295112	19867.0	19867.0	19867.0	0	0	1	-29.999999999999996	29.999999999999996								
	2600	2603	5.162163338342138e-7	0.001590165591719258	0.09807761813793911	19867.0	19867.0	19867.0	0	0	1	-29.999999999999996	29.999999999999996								
	2600	2601	0.0007408556913122371	0.01863151910413039	1.2703717294745882	1696.0	1696.0	1696.0	0	0	1	-29.999999999999996	29.999999999999996								
	2601	2603	0.0008267758478213896	0.01876681531860722	1.6296382459334517	1675.0	1675.0	1675.0	0	0	1	-29.999999999999996	29.999999999999996								
	2603	2901	0.0018086285772307361	0.02550267305420279	0.5599596312371682	1249.0	1249.0	1249.0	0	0	1	-29.999999999999996	29.999999999999996								
	2604	6404	0.010414256054603234	0.09305329755724968	0.29914123274137855	326.0	326.0	326.0	0	0	1	-29.999999999999996	29.999999999999996								
	2604	6504	0.0017963640102510333	0.024450509989093573	0.4646195182612803	1286.0	1286.0	1286.0	0	0	1	-29.999999999999996	29.999999999999996								
	2604	6504	0.001862803156426527	0.025354820568056533	0.39089748557084314	1286.0	1286.0	1286.0	0	0	1	-29.999999999999996	29.999999999999996								
	2605	2607	0.010648438601722482	0.07866906957033187	0.3632703796194545	396.0	396.0	396.0	0	0	1	-29.999999999999996	29.999999999999996								
	2606	2607	0.010655568803570386	0.07872174642966007	0.5872868102070293	396.0	396.0	396.0	0	0	1	-29.999999999999996	29.999999999999996								
	2608	2611	0.00219015902401761	0.03315960146139742	0.053194713575149294	942.0	942.0	942.0	0	0	1	-29.999999999999996	29.999999999999996								
	2608	2612	0.0029257977827639647	0.038338039009061076	0.11771690593767001	828.9999999999999	828.9999999999999	828.9999999999999	0	0	1	-29.999999999999996	29.999999999999996								
	2608	2618	0.0031173040123493256	0.047183269058020144	0.11653809494785841	674.0	674.0	674.0	0	0	1	-29.999999999999996	29.999999999999996								
	2608	2619	0.0021821336724571023	0.03304097899161356	0.1944292021447697	922.0000000000001	922.0000000000001	922.0000000000001	0	0	1	-29.999999999999996	29.999999999999996								
	2609	2615	0.0004697806666201576	0.007226625991761117	0.08331592480689196	4360.0	4360.0	4360.0	0	0	1	-29.999999999999996	29.999999999999996								
	2609	2617	0.0003501183419469353	0.005361812319402843	0.009412614685299732	5881.0	5881.0	5881.0	0	0	1	-29.999999999999996	29.999999999999996								
	2610	2613	0.002099053678983992	0.032649825105905764	0.00941558207427164	922.0000000000001	922.0000000000001	922.0000000000001	0	0	1	-29.999999999999996	29.999999999999996								
	2610	2613	0.0024074699632036715	0.03711347491720774	0.04425273355472155	860.0	860.0	860.0	0	0	1	-29.999999999999996	29.999999999999996								
	2610	2616	0.0019870101054965663	0.03038840272586443	0.05376978077719919	1026.0	1026.0	1026.0	0	0	1	-29.999999999999996	29.999999999999996								
	2610	2617	0.0028382742910578545	0.04339226283694862	0.14347252880329817	734.0	734.0	734.0	0	0	1	-29.999999999999996	29.999999999999996								
	2611	2612	0.0002896634559353279	0.0043349634424837144	0.009392710424903961	7262.0	7262.0	7262.0	0	0	1	-29.999999999999996	29.999999999999996								
	2612	2615	0.002269686947254287	0.015689582680756122	0.009414377933993275	1975.0	1975.0	1975.0	0	0	1	-29.999999999999996	29.999999999999996								
	2612	2615	0.002255964539966909	0.015594724293550976	0.10694261784760692	1975.0	1975.0	1975.0	0	0	1	-29.999999999999996	29.999999999999996								
	2612	2618	0.0014091215461990248	0.009663975423243983	0.06181600821705129	3233.0	3233.0	3233.0	0	0	1	-29.999999999999996	29.999999999999996								
	2612	2618	0.0014058921939854865	0.009641828021917586	0.009395748817533526	3233.0	3233.0	3233.0	0	0	1	-29.999999999999996	29.999999999999996								
	2612	2618	0.001612553682818557	0.00972540140105723	0.014442409012812728	3210.0	3210.0	3210.0	0	0	1	-29.999999999999996	29.999999999999996								
	2612	2618	0.00161212324326823	0.009722805396069633	0.038670682145100846	3210.0	3210.0	3210.0	0	0	1	-29.999999999999996	29.999999999999996								
	2612	2619	0.00026949631777303714	0.003922668624319173	0.045005257622142116	8019.0	8019.0	8019.0	0	0	1	-29.999999999999996	29.999999999999996								
	2612	2619	0.0002699487062248776	0.003929253389557271	0.009573337230851625	8019.0	8019.0	8019.0	0	0	1	-29.999999999999996	29.999999999999996								
	2612	2619	0.0002708486881184196	0.003942353125996999	0.00941599502021054	8019.0	8019.0	8019.0	0	0	1	-29.999999999999996	29.999999999999996								
	2612	2620	0.001385626804572119	0.01120550371618124	0.11347419795391184	2810.0	2810.0	2810.0	0	0	1	-29.999999999999996	29.999999999999996								
	2612	2620	0.0013792927940818008	0.011154280848845101	0.06415600843900329	2810.0	2810.0	2810.0	0	0	1	-29.999999999999996	29.999999999999996								
	2613	2616	0.00037021997722648406	0.003662175990557706	0.009394901036744804	8587.0	8587.0	8587.0	0	0	1	-29.999999999999996	29.999999999999996								
	2613	2617	0.0005491276618235863	0.005850705631400808	0.07611269305344603	5367.0	5367.0	5367.0	0	0	1	-29.999999999999996	29.999999999999996								
	2614	2616	0.0007361301857414887	0.010336074507235674	0.07467989550884492	3074.0	3074.0	3074.0	0	0	1	-29.999999999999996	29.999999999999996								
	2614	2616	0.0007298203873932643	0.010247478024059712	0.04872992731815094	3074.0	3074.0	3074.0	0	0	1	-29.999999999999996	29.999999999999996								
	2615	2617	0.0011812008871179781	0.012348015979065322	0.009451977160001427	2528.0	2528.0	2528.0	0	0	1	-29.999999999999996	29.999999999999996								
	2615	2617	0.0011811339964322106	0.012347316718454087	0.04459601614779067	2528.0	2528.0	2528.0	0	0	1	-29.999999999999996	29.999999999999996								
	2615	2620	0.001286534982721595	0.009839982402247396	0.00939879586561394	3200.0	3200.0	3200.0	0	0	1	-29.999999999999996	29.999999999999996								
	2616	2617	0.001106558403711384	0.011960890365018306	0.058795207382648755	2646.0	2646.0	2646.0	0	0	1	-29.999999999999996	29.999999999999996								
	3101	3102	0.0011099691199325673	0.012815097996971996	0.1243562949878523	2478.0	2478.0	2478.0	0	0	1	-29.999999999999996	29.999999999999996								
	3101	3102	0.0010981482791916854	0.012678621018280227	0.07641253879599985	2478.0	2478.0	2478.0	0	0	1	-29.999999999999996	29.999999999999996								
	3102	3103	0.0010973524208921174	0.012669432472363153	0.009394267165924217	2478.0	2478.0	2478.0	0	0	1	-29.999999999999996	29.999999999999996								
	3102	3103	0.0011035278334023118	0.012740730416397254	0.08554395837812055	2478.0	2478.0	2478.0	0	0	1	-29.999999999999996	29.999999999999996								
	3102	3103	0.0010959395346925966	0.012653120059059969	0.009393730347058262	2478.0	2478.0	2478.0	0	0	1	-29.999999999999996	29.999999999999996								
	3102	3302	0.0010944047521589746	0.012635400297073265	0.02613123499515829	2478.0	2478.0	2478.0	0	0	1	-29.999999999999996	29.999999999999996								
	3103	3204	0.0011007519963925347	0.012708682116113876	0.20530551138199055	2478.0	2478.0	2478.0	0	0	1	-29.999999999999996	29.999999999999996								
	3103	3204	0.0011039599569022194	0.012745719478149668	0.03901153931346734	2478.0	2478.0	2478.0	0	0	1	-29.999999999999996	29.999999999999996								
	3103	3305	0.0011013321146281973	0.01271537984552046	0.009393426526551292	2478.0	2478.0	2478.0	0	0	1	-29.999999999999996	29.999999999999996								
	3103	3305	0.0011013380755437968	0.012715448667000175	0.2380029272056808	2478.0	2478.0	2478.0	0	0	1	-29.999999999999996	29.999999999999996								
	3104	3105	0.0031775108580867064	0.029391975245409617	0.16083525510055163	1089.0	1089.0	1089.0	0	0	1	-29.999999999999996	29.999999999999996								
	3201	3202	0.00110533088877348	0.012761547510415519	0.161644256186086	2478.0	2478.0	2478.0	0	0	1	-29.999999999999996	29.999999999999996								
	3201	3202	0.0011046586316187518	0.01275378599603649	0.009398199528019366	2478.0	2478.0	2478.0	0	0	1	-29.999999999999996	29.999999999999996								
	3201	3203	0.0010890610902974595	0.012573705293046895	0.03964296292728352	2478.0	2478.0	2478.0	0	0	1	-29.999999999999996	29.999999999999996								
	3201	3203	0.001102435397636887	0.012728117749664694	0.029166260818242064	2478.0	2478.0	2478.0	0	0	1	-29.999999999999996	29.999999999999996								
	3201	3923	0.003168431225306361	0.02930798861607529	0.3471614854921698	1089.0	1089.0	1089.0	0	0	1	-29.999999999999996	29.999999999999996								
	3201	3923	0.0031007532355230203	0.02868196722393598	0.1306935114978604	1089.0	1089.0	1089.0	0	0	1	-29.999999999999996	29.999999999999996								
	3201	3924	0.0011009330419378667	0.012710772370029976	0.10397664354058878	2478.0	2478.0	2478.0	0	0	1	-29.999999999999996	29.999999999999996								
	3201	3924	0.001092378478409454	0.012612006046203461	0.14800485737857796	2478.0	2478.0	2478.0	0	0	1	-29.999999999999996	29.999999999999996								
	3202	3203	0.0010848184731485685	0.012524722349446793	0.0839785233298269	2478.0	2478.0	2478.0	0	0	1	-29.999999999999996	29.999999999999996								
	3202	3203	0.003121091240495822	0.02887009379239775	0.17288493524847348	1089.0	1089.0	1089.0	0	0	1	-29.999999999999996	29.999999999999996								
	3202	3204	0.0010996489348400157	0.012695946771342803	0.009395647899443098	2478.0	2478.0	2478.0	0	0	1	-29.999999999999996	29.999999999999996								
	3202	3205	0.0011018465125774014	0.01272131880399028	0.12451177712830823	2478.0	2478.0	2478.0	0	0	1	-29.999999999999996	29.999999999999996								
	3202	3924	0.0031250842034788754	0.028907028702909485	0.16970501816443773	1089.0	1089.0	1089.0	0	0	1	-29.999999999999996	29.999999999999996								
	3202	3924	0.0031274734644801505	0.02892912936674733	0.10403423515737659	1089.0	1089.0	1089.0	0	0	1	-29.999999999999996	29.999999999999996								
	3203	3204	0.0010935899722965788	0.012625993294647423	0.12349704386578443	2478.0	2478.0	2478.0	0	0	1	-29.999999999999996	29.999999999999996								
	3203	3303	0.0010986065257849518	0.0126839116846588	0.011649771266231441	2478.0	2478.0	2478.0	0	0	1	-29.999999999999996	29.999999999999996								
	3203	3303	0.0031007121602428466	0.028681587308011146	0.13741682740890362	1089.0	1089.0	1089.0	0	0	1	-29.999999999999996	29.999999999999996								
	3203	3305	0.0011002974511212925	0.012703434184722778	0.04397991145332988	2478.0	2478.0	2478.0	0	0	1	-29.999999999999996	29.999999999999996								
	3203	3923	0.0031288620572482175	0.028941973822003697	0.20171874265984335	1089.0	1089.0	1089.0	0	0	1	-29.999999999999996	29.999999999999996								
	3203	3923	0.003305088569855498	0.030572069027265752	0.25020752598988416	1089.0	1089.0	1089.0	0	0	1	-29.999999999999996	29.999999999999996								
	3204	3205	0.0011031082040039116	0.01273588560431141	0.09927396591798317	2478.0	2478.0	2478.0	0	0	1	-29.999999999999996	29.999999999999996								
	3204	3205	0.0011059137468580242	0.012768276871625165	0.14219334047284254	2478.0	2478.0	2478.0	0	0	1	-29.999999999999996	29.999999999999996								
	3204	3923	0.0031528658066982303	0.029164008521726074	0.20446981013552423	1089.0	1089.0	1089.0	0	0	1	-29.999999999999996	29.999999999999996								
	3204	3923	0.0031133064637125446	0.02879808460629839	0.16735321234081266	1089.0	1089.0	1089.0	0	0	1	-29.999999999999996	29.999999999999996								
	3205	3914	0.003119313002088398	0.02885364508476127	0.3284957377108031	1089.0	1089.0	1089.0	0	0	1	-29.999999999999996	29.999999999999996								
	3205	3915	0.0031067968559614725	0.028737870736546756	0.12147556512488981	1089.0	1089.0	1089.0	0	0	1	-29.999999999999996	29.999999999999996								
	3301	3902	0.0005275814441594314	0.012910813720706396	0.09007714677302735	2434.0	2434.0	2434.0	0	0	1	-29.999999999999996	29.999999999999996								
	3301	3903	0.004911541106146103	0.15502981596576038	0.009397538599137634	4184.0	4184.0	4184.0	0	0	1	-29.999999999999996	29.999999999999996								
	3302	3304	0.0011078204684716612	0.012790290839302424	0.14090661320431613	2478.0	2478.0	2478.0	0	0	1	-29.999999999999996	29.999999999999996								
	3302	3304	0.0010984488074707156	0.012682090753811494	0.009405906299236896	2478.0	2478.0	2478.0	0	0	1	-29.999999999999996	29.999999999999996								
	3303	3304	0.0010935466653086395	0.012625493294657938	0.009423409021329491	2478.0	2478.0	2478.0	0	0	1	-29.999999999999996	29.999999999999996								
	3303	3304	0.0011079952643526106	0.0127923089372289	0.051403252539337224	2478.0	2478.0	2478.0	0	0	1	-29.999999999999996	29.999999999999996								
	3303	3304	0.0010974037391544673	0.01267002496517586	0.11516546278949792	2478.0	2478.0	2478.0	0	0	1	-29.999999999999996	29.999999999999996								
	3303	3918	0.0031203952148310325	0.02886365554901199	0.009437359211636433	1089.0	1089.0	1089.0	0	0	1	-29.999999999999996	29.999999999999996								
	3303	3918	0.003092892827098172	0.028609258467458987	0.22918299803504708	1089.0	1089.0	1089.0	0	0	1	-29.999999999999996	29.999999999999996								
	3305	3923	0.0031776731005743212	0.02939347595598237	0.2264023846987376	1089.0	1089.0	1089.0	0	0	1	-29.999999999999996	29.999999999999996								
	3401	3402	0.0031080388273586196	0.028749359108221413	0.11478343820907874	1089.0	1089.0	1089.0	0	0	1	-29.999999999999996	29.999999999999996								
	3401	3402	0.003192661957111132	0.02953212305023029	0.1904777941676978	1089.0	1089.0	1089.0	0	0	1	-29.999999999999996	29.999999999999996								
	3401	3404	0.003247777135916492	0.03004193840162184	0.009392509213421626	1089.0	1089.0	1089.0	0	0	1	-29.999999999999996	29.999999999999996								
	3401	3405	0.0031053886710846303	0.028724845413013043	0.09954351944395923	1089.0	1089.0	1089.0	0	0	1	-29.999999999999996	29.999999999999996								
	3401	3405	0.0031332708198943586	0.02898275529146661	0.1591340949548476	1089.0	1089.0	1089.0	0	0	1	-29.999999999999996	29.999999999999996								
	3401	3804	0.003110349854614498	0.028770736192951268	0.11085213533711845	1089.0	1089.0	1089.0	0	0	1	-29.999999999999996	29.999999999999996								
	3403	3404	0.003111834454963234	0.028784468665785344	0.2057592179008525	1089.0	1089.0	1089.0	0	0	1	-29.999999999999996	29.999999999999996								
	3403	3804	0.0031298487562751377	0.028951100885056258	0.13534310772311683	1089.0	1089.0	1089.0	0	0	1	-29.999999999999996	29.999999999999996								
	3404	3804	0.0031242948381075054	0.028899727076161705	0.13504344277330643	1089.0	1089.0	1089.0	0	0	1	-29.999999999999996	29.999999999999996								
	3404	3804	0.0030985281279256606	0.028661385011452382	0.10056205302806155	1089.0	1089.0	1089.0	0	0	1	-29.999999999999996	29.999999999999996								
	3404	3917	0.0031301331051013966	0.028953731033557504	0.16037975154831247	1089.0	1089.0	1089.0	0	0	1	-29.999999999999996	29.999999999999996								
	3404	3918	0.0030864562883437985	0.028549720427430533	0.14642595180537962	1089.0	1089.0	1089.0	0	0	1	-29.999999999999996	29.999999999999996								
	3405	3907	0.00313491650814772	0.02899797774117552	0.13532405523901744	1089.0	1089.0	1089.0	0	0	1	-29.999999999999996	29.999999999999996								
	3405	3907	0.003138965698293144	0.0290354327498719	0.1718385483621756	1089.0	1089.0	1089.0	0	0	1	-29.999999999999996	29.999999999999996								
	3501	3914	0.003146827108002293	0.029108150563957647	0.1837472521783144	1089.0	1089.0	1089.0	0	0	1	-29.999999999999996	29.999999999999996								
	3501	3915	0.003097030069324142	0.028647527974255883	0.15166620023749394	1089.0	1089.0	1089.0	0	0	1	-29.999999999999996	29.999999999999996								
	3601	3925	0.003120766548317664	0.028867090390626012	0.1342484773225115	1089.0	1089.0	1089.0	0	0	1	-29.999999999999996	29.999999999999996								
	3701	3926	0.003084612218035711	0.02853266319714014	0.13370175826162636	1089.0	1089.0	1089.0	0	0	1	-29.999999999999996	29.999999999999996								
	3701	3926	0.003100842266574155	0.028682791147028486	0.009408182652974035	1089.0	1089.0	1089.0	0	0	1	-29.999999999999996	29.999999999999996								
	3801	3802	0.0007798791201922028	0.01912184595463174	1.3190059560558274	1630.0	1630.0	1630.0	0	0	1	-29.999999999999996	29.999999999999996								
	3801	3803	0.0008637034882881452	0.020718955593557898	1.4938333984382322	1513.0	1513.0	1513.0	0	0	1	-29.999999999999996	29.999999999999996								
	3801	3803	0.0008239533691198613	0.019765409698395756	1.5220405314284597	1513.0	1513.0	1513.0	0	0	1	-29.999999999999996	29.999999999999996								
	3802	3891	0.0007120933128841369	0.01582429566668771	1.1490234800973043	1973.0	1973.0	1973.0	0	0	1	-29.999999999999996	29.999999999999996								
	3802	3901	0.0008000011421088957	0.01913255707880921	0.009394428975591665	1590.0	1590.0	1590.0	0	0	1	-29.999999999999996	29.999999999999996								
	3803	3891	0.004911530633995528	0.15502981662996834	0.08470913503576541	3166.0	3166.0	3166.0	0	0	1	-29.999999999999996	29.999999999999996								
	3803	3892	0.00491148869590569	0.15502981928992476	0.010509345013028314	3379.0	3379.0	3379.0	0	0	1	-29.999999999999996	29.999999999999996								
	3803	3894	0.004911488695910995	0.15502981928992443	0.11820409006841258	3347.0	3347.0	3347.0	0	0	1	-29.999999999999996	29.999999999999996								
	3803	3896	0.004911488695901833	0.155029819289925	0.009396151081016475	3379.0	3379.0	3379.0	0	0	1	-29.999999999999996	29.999999999999996								
	3803	3901	0.0015304583053849874	0.01470440332545386	0.009418036630361119	2138.0	2138.0	2138.0	0	0	1	-29.999999999999996	29.999999999999996								
	3804	3806	0.0031493108935429477	0.029131125666659742	0.15221328821774122	1089.0	1089.0	1089.0	0	0	1	-29.999999999999996	29.999999999999996								
	3805	3806	0.0031236802247139256	0.0288940418873338	0.2522646449521103	1089.0	1089.0	1089.0	0	0	1	-29.999999999999996	29.999999999999996								
	3892	3893	0.0012275341259689171	0.026536692193618084	1.9165203573604825	1187.0	1187.0	1187.0	0	0	1	-29.999999999999996	29.999999999999996								
	3894	3895	0.0012005289501587101	0.02598217862459176	1.942709102436161	1186.0	1186.0	1186.0	0	0	1	-29.999999999999996	29.999999999999996								
	3896	3897	0.0010850004979521771	0.02438344800505249	1.7858312490676638	1254.0	1254.0	1254.0	0	0	1	-29.999999999999996	29.999999999999996								
	3901	3902	0.0005319353072746766	0.013017360135781399	0.00942645563560549	2434.0	2434.0	2434.0	0	0	1	-29.999999999999996	29.999999999999996								
	3901	3903	0.0009106847741352824	0.03568316943918098	1.4195134683592496	867.0	867.0	867.0	0	0	1	-29.999999999999996	29.999999999999996								
	3901	8002	0.004911519693070533	0.15502981732390733	0.05676832135700054	2374.0	2374.0	2374.0	0	0	1	-29.999999999999996	29.999999999999996								
	3903	3904	0.004911585841510767	0.15502981312835334	0.11559199033990127	2877.0	2877.0	2877.0	0	0	1	-29.999999999999996	29.999999999999996								
	3903	3905	0.0009785141659536813	0.010334307771849481	0.07220565882643147	3039.0	3039.0	3039.0	0	0	1	-29.999999999999996	29.999999999999996								
	3903	8002	0.001762473370818891	0.06108835925168105	2.5308548347311803	553.0	553.0	553.0	0	0	1	-29.999999999999996	29.999999999999996								
	3904	3905	0.0016037583708218201	0.012318868976954028	0.03153918934925593	2549.0	2549.0	2549.0	0	0	1	-29.999999999999996	29.999999999999996								
	3905	3906	0.0007204396651932421	0.0034621128354110453	0.009428097310608759	8938.0	8938.0	8938.0	0	0	1	-29.999999999999996	29.999999999999996								
	3906	4001	0.000529336202067643	0.004554288831920912	0.15508256866632383	6881.0	6881.0	6881.0	0	0	1	-29.999999999999996	29.999999999999996								
	3906	4001	0.0005299849144869027	0.004559870206694836	0.009392501387576368	6881.0	6881.0	6881.0	0	0	1	-29.999999999999996	29.999999999999996								
	3907	3908	0.003151580444244576	0.02915211969129191	0.16769238798932012	1089.0	1089.0	1089.0	0	0	1	-29.999999999999996	29.999999999999996								
	3907	3923	0.0031266501452107695	0.028921513841611825	0.17907237001053208	1089.0	1089.0	1089.0	0	0	1	-29.999999999999996	29.999999999999996								
...
];

%%-----  OPF Data  -----%%
%% cost data
%    1    startup    shutdown    n    x1    y1    ...    xn    yn
%    2    startup    shutdown    n    c(n-1)    ...    c0
mpc.gencost = [
	2	0.0	0.0	2	23.55253	0.0
	2	0.0	0.0	2	17.52574	0.0
	2	0.0	0.0	2	50.253548	0.0
	2	0.0	0.0	2	7.78454	0.0
	2	0.0	0.0	2	7.164105000000001	0.0
	2	0.0	0.0	2	32.436958	0.0
	2	0.0	0.0	2	31.156469	0.0
	2	0.0	0.0	2	22.737499	0.0
	2	0.0	0.0	2	19.952184	0.0
	2	0.0	0.0	2	31.242137	0.0
	2	0.0	0.0	2	24.807784	0.0
	2	0.0	0.0	2	28.383968	0.0
	2	0.0	0.0	2	34.755431	0.0
	2	0.0	0.0	2	7.698014	0.0
	2	0.0	0.0	2	105.404954	0.0
	2	0.0	0.0	2	40.082606	0.0
	2	0.0	0.0	2	25.63009	0.0
	2	0.0	0.0	2	103.348768	0.0
	2	0.0	0.0	2	6.769987000000001	0.0
	2	0.0	0.0	2	11.50831	0.0
	2	0.0	0.0	2	37.856831	0.0
	2	0.0	0.0	2	36.108116	0.0
	2	0.0	0.0	2	49.860247	0.0
	2	0.0	0.0	2	19.863282	0.0
	2	0.0	0.0	2	28.216009	0.0
	2	0.0	0.0	2	25.247027	0.0
	2	0.0	0.0	2	39.435718	0.0
	2	0.0	0.0	2	22.418634	0.0
	2	0.0	0.0	2	25.395707	0.0
	2	0.0	0.0	2	112.919983	0.0
	2	0.0	0.0	2	29.447096	0.0
	2	0.0	0.0	2	27.360187	0.0
	2	0.0	0.0	2	43.05455400000001	0.0
	2	0.0	0.0	2	21.95488	0.0
	2	0.0	0.0	2	21.935047	0.0
	2	0.0	0.0	2	0.0	0.0
	2	0.0	0.0	2	32.738635	0.0
	2	0.0	0.0	2	24.642891	0.0
	2	0.0	0.0	2	17.386501	0.0
	2	0.0	0.0	2	25.623984	0.0
	2	0.0	0.0	2	36.008261	0.0
	2	0.0	0.0	2	33.638878	0.0
	2	0.0	0.0	2	60.295192	0.0
	2	0.0	0.0	2	115.784252	0.0
	2	0.0	0.0	2	19.747758	0.0
	2	0.0	0.0	2	139.406671	0.0
	2	0.0	0.0	2	40.62684	0.0
	2	0.0	0.0	2	33.390411	0.0
	2	0.0	0.0	2	9.116809	0.0
	2	0.0	0.0	2	22.599236	0.0
	2	0.0	0.0	2	36.557379	0.0
	2	0.0	0.0	2	29.600547	0.0
	2	0.0	0.0	2	23.127115	0.0
	2	0.0	0.0	2	19.029025	0.0
	2	0.0	0.0	2	26.628665	0.0
	2	0.0	0.0	2	23.06917	0.0
	2	0.0	0.0	2	19.755158	0.0
	2	0.0	0.0	2	111.468783	0.0
	2	0.0	0.0	2	37.36433	0.0
	2	0.0	0.0	2	29.305594000000003	0.0
	2	0.0	0.0	2	43.487946	0.0
	2	0.0	0.0	2	18.009089	0.0
	2	0.0	0.0	2	27.186796	0.0
	2	0.0	0.0	2	0.0	0.0
	2	0.0	0.0	2	39.855613	0.0
	2	0.0	0.0	2	52.291471	0.0
	2	0.0	0.0	2	32.821502	0.0
	2	0.0	0.0	2	22.434142	0.0
	2	0.0	0.0	2	35.060251	0.0
	2	0.0	0.0	2	58.640953	0.0
	2	0.0	0.0	2	40.111583	0.0
	2	0.0	0.0	2	10.724076	0.0
	2	0.0	0.0	2	29.604602	0.0
	2	0.0	0.0	2	7.148098	0.0
	2	0.0	0.0	2	14.120280000000001	0.0
	2	0.0	0.0	2	32.489744	0.0
	2	0.0	0.0	2	32.920521	0.0
	2	0.0	0.0	2	28.879314	0.0
	2	0.0	0.0	2	7.795262	0.0
	2	0.0	0.0	2	14.49579	0.0
	2	0.0	0.0	2	33.529629	0.0
	2	0.0	0.0	2	14.148633	0.0
	2	0.0	0.0	2	22.360086000000003	0.0
	2	0.0	0.0	2	23.153973	0.0
	2	0.0	0.0	2	32.076694	0.0
	2	0.0	0.0	2	31.799668	0.0
	2	0.0	0.0	2	48.375219	0.0
	2	0.0	0.0	2	20.048511	0.0
	2	0.0	0.0	2	13.581555000000002	0.0
	2	0.0	0.0	2	31.58479	0.0
	2	0.0	0.0	2	45.195796	0.0
	2	0.0	0.0	2	39.759127	0.0
	2	0.0	0.0	2	14.530332	0.0
	2	0.0	0.0	2	15.136833	0.0
	2	0.0	0.0	2	42.828324	0.0
	2	0.0	0.0	2	14.38957	0.0
	2	0.0	0.0	2	38.966466	0.0
	2	0.0	0.0	2	15.486578	0.0
	2	0.0	0.0	2	41.492611	0.0
	2	0.0	0.0	2	28.466295000000002	0.0
	2	0.0	0.0	2	27.255650000000003	0.0
	2	0.0	0.0	2	24.837547	0.0
	2	0.0	0.0	2	28.019241	0.0
	2	0.0	0.0	2	11.786936	0.0
	2	0.0	0.0	2	29.985739	0.0
	2	0.0	0.0	2	28.815976000000003	0.0
	2	0.0	0.0	2	37.698432	0.0
	2	0.0	0.0	2	48.83129300000001	0.0
	2	0.0	0.0	2	32.211888	0.0
	2	0.0	0.0	2	105.10465600000002	0.0
	2	0.0	0.0	2	37.879273	0.0
	2	0.0	0.0	2	33.634935	0.0
	2	0.0	0.0	2	30.107834000000004	0.0
	2	0.0	0.0	2	37.793235	0.0
	2	0.0	0.0	2	31.239418	0.0
	2	0.0	0.0	2	28.663274	0.0
	2	0.0	0.0	2	24.405861	0.0
	2	0.0	0.0	2	38.01667	0.0
	2	0.0	0.0	2	32.247846	0.0
	2	0.0	0.0	2	24.38896	0.0
	2	0.0	0.0	2	11.81616	0.0
	2	0.0	0.0	2	29.852868	0.0
	2	0.0	0.0	2	28.252173	0.0
	2	0.0	0.0	2	102.698216	0.0
	2	0.0	0.0	2	23.707527	0.0
	2	0.0	0.0	2	26.935133	0.0
	2	0.0	0.0	2	19.266401	0.0
	2	0.0	0.0	2	27.889540000000004	0.0
	2	0.0	0.0	2	20.456741	0.0
	2	0.0	0.0	2	26.092954	0.0
	2	0.0	0.0	2	37.210311	0.0
	2	0.0	0.0	2	27.338561	0.0
	2	0.0	0.0	2	7.157129	0.0
	2	0.0	0.0	2	38.956112	0.0
	2	0.0	0.0	2	40.642352	0.0
	2	0.0	0.0	2	18.781578	0.0
	2	0.0	0.0	2	43.330859000000004	0.0
	2	0.0	0.0	2	31.905335	0.0
	2	0.0	0.0	2	9.594434	0.0
	2	0.0	0.0	2	25.215165	0.0
	2	0.0	0.0	2	114.36566300000001	0.0
	2	0.0	0.0	2	24.14915	0.0
	2	0.0	0.0	2	24.948779000000002	0.0
];

